<?xml version="1.0" encoding="UTF-8"?>

<!-- generated on 2023-11-11 22:11:57 by Eclipse SUMO netconvert Version 1.18.0
<configuration xmlns:xsi="http://www.w3.org/2001/XMLSchema-instance" xsi:noNamespaceSchemaLocation="http://sumo.dlr.de/xsd/netconvertConfiguration.xsd">

    <input>
        <osm-files value="C:\Users\pedro\Downloads\royal\map.osm"/>
    </input>

    <output>
        <output-file value="C:\Users\pedro\Downloads\royal\map.net.xml"/>
    </output>

    <projection>
        <proj.utm value="true"/>
    </projection>

</configuration>
-->

<net version="1.16" junctionCornerDetail="5" limitTurnSpeed="5.50" xmlns:xsi="http://www.w3.org/2001/XMLSchema-instance" xsi:noNamespaceSchemaLocation="http://sumo.dlr.de/xsd/net_file.xsd">

    <location netOffset="-229843.25,3288209.24" convBoundary="0.00,0.00,980.65,730.14" origBoundary="-53.791866,-29.694747,-53.781835,-29.688057" projParameter="+proj=utm +zone=22 +ellps=WGS84 +datum=WGS84 +units=m +no_defs"/>

    <type id="highway.footway" priority="1" numLanes="1" speed="2.78" allow="pedestrian" oneway="1" width="2.00"/>
    <type id="highway.residential" priority="3" numLanes="1" speed="13.89" disallow="tram rail_urban rail rail_electric rail_fast ship" oneway="0"/>
    <type id="highway.secondary" priority="11" numLanes="1" speed="27.78" disallow="tram rail_urban rail rail_electric rail_fast ship" oneway="0"/>
    <type id="highway.service" priority="1" numLanes="1" speed="5.56" allow="pedestrian delivery bicycle" oneway="0"/>
    <type id="highway.tertiary" priority="10" numLanes="1" speed="22.22" disallow="tram rail_urban rail rail_electric rail_fast ship" oneway="0"/>

    <edge id=":2035522758_0" function="internal">
        <lane id=":2035522758_0_0" index="0" allow="pedestrian delivery bicycle" speed="4.87" length="5.23" shape="111.30,398.97 112.27,400.09 113.31,400.55 114.44,400.36 115.65,399.51"/>
    </edge>
    <edge id=":2035522758_1" function="internal">
        <lane id=":2035522758_1_0" index="0" allow="pedestrian delivery bicycle" speed="3.65" length="4.67" shape="111.30,398.97 111.28,400.42 110.82,401.18 109.93,401.28 108.61,400.70"/>
    </edge>
    <edge id=":2035522758_2" function="internal">
        <lane id=":2035522758_2_0" index="0" allow="pedestrian delivery bicycle" speed="5.73" length="5.82" shape="108.71,406.02 109.48,404.96 109.72,403.72 109.43,402.30 108.61,400.70"/>
    </edge>
    <edge id=":2035522758_3" function="internal">
        <lane id=":2035522758_3_0" index="0" disallow="tram rail_urban rail rail_electric rail_fast ship" speed="27.78" length="9.51" shape="108.71,406.02 115.65,399.51"/>
        <lane id=":2035522758_3_1" index="1" disallow="tram rail_urban rail rail_electric rail_fast ship" speed="27.78" length="9.51" shape="110.90,408.35 117.84,401.85"/>
    </edge>
    <edge id=":2035522765_0" function="internal">
        <lane id=":2035522765_0_0" index="0" disallow="tram rail_urban rail rail_electric rail_fast ship" speed="7.51" length="10.27" shape="183.73,363.33 181.07,361.88 178.62,361.35 176.37,361.75 174.32,363.07"/>
    </edge>
    <edge id=":2035522765_1" function="internal">
        <lane id=":2035522765_1_0" index="0" disallow="tram rail_urban rail rail_electric rail_fast ship" speed="3.65" length="4.67" shape="183.73,363.33 183.20,361.99 183.33,361.11 184.11,360.68 185.56,360.70"/>
    </edge>
    <edge id=":2035522765_2" function="internal">
        <lane id=":2035522765_2_0" index="0" disallow="tram rail_urban rail rail_electric rail_fast ship" speed="6.08" length="9.06" shape="185.04,353.22 183.42,355.21 182.96,357.12 183.67,358.95 185.56,360.70"/>
    </edge>
    <edge id=":2035522765_3" function="internal">
        <lane id=":2035522765_3_0" index="0" disallow="tram rail_urban rail rail_electric rail_fast ship" speed="27.78" length="14.56" shape="185.04,353.22 174.32,363.07"/>
        <lane id=":2035522765_3_1" index="1" disallow="tram rail_urban rail rail_electric rail_fast ship" speed="27.78" length="14.56" shape="182.88,350.87 172.15,360.72"/>
    </edge>
    <edge id=":2035522767_0" function="internal">
        <lane id=":2035522767_0_0" index="0" allow="pedestrian delivery bicycle" speed="4.93" length="5.24" shape="263.15,297.99 262.42,296.75 261.48,296.09 260.31,296.04 258.93,296.59"/>
    </edge>
    <edge id=":2035522767_1" function="internal">
        <lane id=":2035522767_1_0" index="0" allow="pedestrian delivery bicycle" speed="3.65" length="4.67" shape="263.15,297.99 263.45,296.58 264.04,295.92 264.93,295.99 266.12,296.81"/>
    </edge>
    <edge id=":2035522767_2" function="internal">
        <lane id=":2035522767_2_0" index="0" allow="pedestrian delivery bicycle" speed="5.51" length="5.64" shape="267.27,291.85 266.24,292.68 265.70,293.78 265.66,295.16 266.12,296.81"/>
    </edge>
    <edge id=":2035522767_3" function="internal">
        <lane id=":2035522767_3_0" index="0" disallow="tram rail_urban rail rail_electric rail_fast ship" speed="27.78" length="9.72" shape="267.27,291.85 258.93,296.59"/>
        <lane id=":2035522767_3_1" index="1" disallow="tram rail_urban rail rail_electric rail_fast ship" speed="27.78" length="9.72" shape="265.76,289.03 257.19,293.90"/>
    </edge>
    <edge id=":2035590335_0" function="internal">
        <lane id=":2035590335_0_0" index="0" disallow="tram rail_urban rail rail_electric rail_fast ship" speed="18.06" length="12.63" shape="354.49,277.51 351.64,275.28 349.60,273.83 347.35,272.79 343.91,271.79"/>
        <lane id=":2035590335_0_1" index="1" disallow="tram rail_urban rail rail_electric rail_fast ship" speed="18.06" length="12.63" shape="356.11,274.72 353.04,272.34 350.83,270.82 348.40,269.75 344.69,268.69"/>
    </edge>
    <edge id=":2035590335_2" function="internal">
        <lane id=":2035590335_2_0" index="0" disallow="tram rail_urban rail rail_electric rail_fast ship" speed="11.45" length="12.68" shape="356.68,269.87 353.79,271.40 350.70,272.22 347.41,272.35 343.91,271.79"/>
        <lane id=":2035590335_2_1" index="1" disallow="tram rail_urban rail rail_electric rail_fast ship" speed="10.92" length="12.68" shape="356.17,266.36 353.33,267.93 350.47,268.84 347.59,269.09 344.69,268.69"/>
    </edge>
    <edge id=":2035590343_0" function="internal">
        <lane id=":2035590343_0_0" index="0" disallow="tram rail_urban rail rail_electric rail_fast ship" speed="11.07" length="7.35" shape="338.99,269.84 337.09,268.94 335.62,268.75 334.07,268.95 331.89,269.22"/>
        <lane id=":2035590343_0_1" index="1" disallow="tram rail_urban rail rail_electric rail_fast ship" speed="12.40" length="9.28" shape="340.61,267.08 338.21,265.90 336.36,265.57 334.41,265.73 331.66,266.02"/>
    </edge>
    <edge id=":2035590343_2" function="internal">
        <lane id=":2035590343_2_0" index="0" disallow="tram rail_urban rail rail_electric rail_fast ship" speed="11.09" length="9.21" shape="340.61,267.08 338.10,265.91 336.17,265.22 334.66,264.17 333.44,261.94"/>
    </edge>
    <edge id=":2035590353_0" function="internal">
        <lane id=":2035590353_0_0" index="0" disallow="tram rail_urban rail rail_electric rail_fast ship" speed="10.89" length="6.92" shape="359.55,240.48 361.28,241.48 362.63,241.80 364.10,241.77 366.17,241.72"/>
        <lane id=":2035590353_0_1" index="1" disallow="tram rail_urban rail rail_electric rail_fast ship" speed="12.25" length="8.83" shape="357.71,243.10 359.90,244.42 361.62,244.91 363.48,244.95 366.11,244.92"/>
    </edge>
    <edge id=":2035590353_2" function="internal">
        <lane id=":2035590353_2_0" index="0" disallow="tram rail_urban rail rail_electric rail_fast ship" speed="10.25" length="8.64" shape="357.71,243.10 359.95,244.41 361.66,245.29 362.91,246.47 363.77,248.71"/>
    </edge>
    <edge id=":2035590357_0" function="internal">
        <lane id=":2035590357_0_0" index="0" disallow="tram rail_urban rail rail_electric rail_fast ship" speed="7.53" length="5.99" shape="368.99,261.90 364.55,263.43"/>
        <lane id=":2035590357_0_1" index="1" disallow="tram rail_urban rail rail_electric rail_fast ship" speed="9.25" length="5.99" shape="367.93,258.88 365.80,259.41 364.19,259.69 362.90,260.34 361.71,261.96"/>
    </edge>
    <edge id=":2035590357_2" function="internal">
        <lane id=":2035590357_2_0" index="0" disallow="tram rail_urban rail rail_electric rail_fast ship" speed="20.09" length="7.58" shape="364.61,255.05 364.22,257.23 363.65,258.65 362.83,260.00 361.71,261.96"/>
    </edge>
    <edge id=":2035590382_0" function="internal">
        <lane id=":2035590382_0_0" index="0" allow="pedestrian delivery bicycle" speed="5.35" length="5.38" shape="435.20,259.46 433.87,259.60 432.85,260.19 432.13,261.25 431.70,262.77"/>
    </edge>
    <edge id=":2035590382_1" function="internal">
        <lane id=":2035590382_1_0" index="0" disallow="tram rail_urban rail rail_electric rail_fast ship" speed="8.33" length="9.43" shape="435.20,259.46 425.79,258.86"/>
        <lane id=":2035590382_1_1" index="1" disallow="tram rail_urban rail rail_electric rail_fast ship" speed="8.33" length="9.43" shape="435.41,256.27 426.00,255.67"/>
    </edge>
    <edge id=":2035590382_3" function="internal">
        <lane id=":2035590382_3_0" index="0" allow="pedestrian delivery bicycle" speed="4.95" length="5.11" shape="428.54,262.28 428.56,260.86 428.10,259.82 427.18,259.15 425.79,258.86"/>
    </edge>
    <edge id=":2035590382_4" function="internal">
        <lane id=":2035590382_4_0" index="0" allow="pedestrian delivery bicycle" speed="3.65" length="4.67" shape="428.54,262.28 429.52,261.22 430.37,260.94 431.10,261.46 431.70,262.77"/>
    </edge>
    <edge id=":2035590411_0" function="internal">
        <lane id=":2035590411_0_0" index="0" disallow="tram rail_urban rail rail_electric rail_fast ship" speed="22.22" length="9.40" shape="406.76,312.31 413.12,319.23"/>
    </edge>
    <edge id=":2035590411_1" function="internal">
        <lane id=":2035590411_1_0" index="0" disallow="tram rail_urban rail rail_electric rail_fast ship" speed="6.07" length="7.66" shape="406.76,312.31 408.48,314.46 409.41,316.29 409.53,317.79 408.86,318.96"/>
    </edge>
    <edge id=":2035590411_2" function="internal">
        <lane id=":2035590411_2_0" index="0" disallow="tram rail_urban rail rail_electric rail_fast ship" speed="6.03" length="7.68" shape="406.67,316.63 407.89,316.03 409.37,316.26 411.12,317.33 413.12,319.23"/>
    </edge>
    <edge id=":2035590411_3" function="internal">
        <lane id=":2035590411_3_0" index="0" disallow="tram rail_urban rail rail_electric rail_fast ship" speed="3.65" length="4.67" shape="406.67,316.63 408.09,316.39 408.93,316.70 409.19,317.56 408.86,318.96"/>
    </edge>
    <edge id=":2035590415_0" function="internal">
        <lane id=":2035590415_0_0" index="0" disallow="tram rail_urban rail rail_electric rail_fast ship" speed="22.22" length="7.41" shape="485.52,394.08 491.02,399.05"/>
    </edge>
    <edge id=":2035590415_1" function="internal">
        <lane id=":2035590415_1_0" index="0" disallow="tram rail_urban rail rail_electric rail_fast ship" speed="6.00" length="8.00" shape="485.52,394.08 487.40,396.17 488.37,398.00 488.43,399.56 487.58,400.86"/>
    </edge>
    <edge id=":2035590415_2" function="internal">
        <lane id=":2035590415_2_0" index="0" disallow="tram rail_urban rail rail_electric rail_fast ship" speed="5.80" length="6.14" shape="485.48,398.45 486.69,397.71 488.01,397.57 489.46,398.02 491.02,399.05"/>
    </edge>
    <edge id=":2035590415_3" function="internal">
        <lane id=":2035590415_3_0" index="0" disallow="tram rail_urban rail rail_electric rail_fast ship" speed="3.65" length="4.67" shape="485.48,398.45 486.91,398.26 487.73,398.60 487.96,399.47 487.58,400.86"/>
    </edge>
    <edge id=":2035590417_0" function="internal">
        <lane id=":2035590417_0_0" index="0" allow="pedestrian delivery bicycle" speed="5.16" length="5.14" shape="555.35,447.50 554.63,448.76 554.45,449.93 554.82,451.02 555.73,452.03"/>
    </edge>
    <edge id=":2035590417_1" function="internal">
        <lane id=":2035590417_1_0" index="0" allow="pedestrian delivery bicycle" speed="3.65" length="4.67" shape="555.35,447.50 553.99,447.97 553.11,447.80 552.72,447.00 552.81,445.56"/>
    </edge>
    <edge id=":2035590417_2" function="internal">
        <lane id=":2035590417_2_0" index="0" allow="pedestrian delivery bicycle" speed="5.00" length="5.04" shape="548.45,446.07 549.64,446.78 550.76,446.94 551.82,446.53 552.81,445.56"/>
    </edge>
    <edge id=":2035590417_3" function="internal">
        <lane id=":2035590417_3_0" index="0" disallow="tram rail_urban rail rail_electric rail_fast ship" speed="22.22" length="9.41" shape="548.45,446.07 555.73,452.03"/>
    </edge>
    <edge id=":2035590448_0" function="internal">
        <lane id=":2035590448_0_0" index="0" disallow="tram rail_urban rail rail_electric rail_fast ship" speed="6.95" length="9.70" shape="487.45,408.65 485.33,407.19 483.17,406.71 480.99,407.21 478.78,408.70"/>
    </edge>
    <edge id=":2035590448_1" function="internal">
        <lane id=":2035590448_1_0" index="0" disallow="tram rail_urban rail rail_electric rail_fast ship" speed="8.33" length="14.68" shape="487.45,408.65 476.84,398.51"/>
    </edge>
    <edge id=":2035590448_2" function="internal">
        <lane id=":2035590448_2_0" index="0" disallow="tram rail_urban rail rail_electric rail_fast ship" speed="7.14" length="11.90" shape="487.45,408.65 484.86,405.73 483.65,403.07 483.83,400.66 485.40,398.51"/>
    </edge>
    <edge id=":2035590448_3" function="internal">
        <lane id=":2035590448_3_0" index="0" disallow="tram rail_urban rail rail_electric rail_fast ship" speed="13.89" length="11.69" shape="487.50,400.93 478.78,408.70"/>
    </edge>
    <edge id=":2035590448_4" function="internal">
        <lane id=":2035590448_4_0" index="0" disallow="tram rail_urban rail rail_electric rail_fast ship" speed="7.63" length="12.15" shape="487.50,400.93 485.22,402.22 482.68,402.24 479.89,401.01 476.84,398.51"/>
    </edge>
    <edge id=":2035590448_5" function="internal">
        <lane id=":2035590448_5_0" index="0" disallow="tram rail_urban rail rail_electric rail_fast ship" speed="3.65" length="4.67" shape="487.50,400.93 486.07,401.11 485.25,400.77 485.02,399.90 485.40,398.51"/>
    </edge>
    <edge id=":2035590448_6" function="internal">
        <lane id=":2035590448_6_0" index="0" disallow="tram rail_urban rail rail_electric rail_fast ship" speed="6.37" length="9.04" shape="476.65,406.32 478.26,404.40 478.83,402.47 478.36,400.50 476.84,398.51"/>
    </edge>
    <edge id=":2035590448_7" function="internal">
        <lane id=":2035590448_7_0" index="0" disallow="tram rail_urban rail rail_electric rail_fast ship" speed="13.89" length="11.72" shape="476.65,406.32 485.40,398.51"/>
    </edge>
    <edge id=":2035590448_8" function="internal">
        <lane id=":2035590448_8_0" index="0" disallow="tram rail_urban rail rail_electric rail_fast ship" speed="3.65" length="4.67" shape="476.65,406.32 478.08,406.11 478.91,406.44 479.14,407.31 478.78,408.70"/>
    </edge>
    <edge id=":2035590452_0" function="internal">
        <lane id=":2035590452_0_0" index="0" disallow="tram rail_urban rail rail_electric rail_fast ship" speed="6.94" length="10.39" shape="407.49,327.95 405.47,326.48 403.28,326.13 400.91,326.91 398.37,328.82"/>
    </edge>
    <edge id=":2035590452_1" function="internal">
        <lane id=":2035590452_1_0" index="0" disallow="tram rail_urban rail rail_electric rail_fast ship" speed="8.33" length="14.53" shape="407.49,327.95 405.37,325.35 403.69,322.78 401.72,319.90 398.73,316.38"/>
    </edge>
    <edge id=":2035590452_2" function="internal">
        <lane id=":2035590452_2_0" index="0" disallow="tram rail_urban rail rail_electric rail_fast ship" speed="7.61" length="12.79" shape="407.49,327.95 405.15,324.85 404.22,321.95 404.69,319.25 406.55,316.74"/>
    </edge>
    <edge id=":2035590452_3" function="internal">
        <lane id=":2035590452_3_0" index="0" disallow="tram rail_urban rail rail_electric rail_fast ship" speed="13.89" length="14.23" shape="408.74,319.07 398.37,328.82"/>
    </edge>
    <edge id=":2035590452_4" function="internal">
        <lane id=":2035590452_4_0" index="0" disallow="tram rail_urban rail rail_electric rail_fast ship" speed="7.31" length="11.62" shape="408.74,319.07 406.63,320.30 404.26,320.25 401.63,318.95 398.73,316.38"/>
    </edge>
    <edge id=":2035590452_5" function="internal">
        <lane id=":2035590452_5_0" index="0" disallow="tram rail_urban rail rail_electric rail_fast ship" speed="3.65" length="4.67" shape="408.74,319.07 407.32,319.31 406.48,319.00 406.22,318.15 406.55,316.74"/>
    </edge>
    <edge id=":2035590452_6" function="internal">
        <lane id=":2035590452_6_0" index="0" disallow="tram rail_urban rail rail_electric rail_fast ship" speed="6.50" length="9.03" shape="396.18,326.49 397.72,324.56 398.28,322.59 397.84,320.60 396.40,318.58"/>
    </edge>
    <edge id=":2035590452_7" function="internal">
        <lane id=":2035590452_7_0" index="0" disallow="tram rail_urban rail rail_electric rail_fast ship" speed="13.89" length="14.24" shape="396.18,326.49 406.55,316.74"/>
    </edge>
    <edge id=":2035590452_8" function="internal">
        <lane id=":2035590452_8_0" index="0" disallow="tram rail_urban rail rail_electric rail_fast ship" speed="3.65" length="4.67" shape="396.18,326.49 397.60,326.25 398.44,326.56 398.70,327.42 398.37,328.82"/>
    </edge>
    <edge id=":2035590531_0" function="internal">
        <lane id=":2035590531_0_0" index="0" disallow="tram rail_urban rail rail_electric rail_fast ship" speed="7.58" length="10.93" shape="289.39,439.90 286.91,438.43 284.44,438.00 281.96,438.61 279.47,440.26"/>
    </edge>
    <edge id=":2035590531_1" function="internal">
        <lane id=":2035590531_1_0" index="0" disallow="tram rail_urban rail rail_electric rail_fast ship" speed="13.89" length="15.57" shape="289.39,439.90 277.12,430.32"/>
    </edge>
    <edge id=":2035590531_2" function="internal">
        <lane id=":2035590531_2_0" index="0" disallow="tram rail_urban rail rail_electric rail_fast ship" speed="7.77" length="4.12" shape="289.39,439.90 286.58,436.88"/>
    </edge>
    <edge id=":2035590531_3" function="internal">
        <lane id=":2035590531_3_0" index="0" disallow="tram rail_urban rail rail_electric rail_fast ship" speed="3.65" length="1.44" shape="289.39,439.90 288.95,438.52"/>
    </edge>
    <edge id=":2035590531_16" function="internal">
        <lane id=":2035590531_16_0" index="0" disallow="tram rail_urban rail rail_electric rail_fast ship" speed="7.77" length="10.62" shape="286.58,436.88 285.56,433.80 286.33,430.64 288.90,427.41"/>
    </edge>
    <edge id=":2035590531_17" function="internal">
        <lane id=":2035590531_17_0" index="0" disallow="tram rail_urban rail rail_electric rail_fast ship" speed="3.65" length="3.23" shape="288.95,438.52 289.14,437.65 289.96,437.28 291.39,437.41"/>
    </edge>
    <edge id=":2035590531_4" function="internal">
        <lane id=":2035590531_4_0" index="0" disallow="tram rail_urban rail rail_electric rail_fast ship" speed="6.23" length="9.05" shape="291.10,429.75 289.52,431.72 289.04,433.66 289.67,435.55 291.39,437.41"/>
    </edge>
    <edge id=":2035590531_5" function="internal">
        <lane id=":2035590531_5_0" index="0" disallow="tram rail_urban rail rail_electric rail_fast ship" speed="13.89" length="15.67" shape="291.10,429.75 279.47,440.26"/>
    </edge>
    <edge id=":2035590531_6" function="internal">
        <lane id=":2035590531_6_0" index="0" disallow="tram rail_urban rail rail_electric rail_fast ship" speed="8.87" length="15.43" shape="291.10,429.75 287.76,432.10 284.31,432.98 280.77,432.39 277.12,430.32"/>
    </edge>
    <edge id=":2035590531_7" function="internal">
        <lane id=":2035590531_7_0" index="0" disallow="tram rail_urban rail rail_electric rail_fast ship" speed="3.65" length="4.67" shape="291.10,429.75 289.67,429.99 288.83,429.68 288.58,428.82 288.90,427.41"/>
    </edge>
    <edge id=":2035590531_8" function="internal">
        <lane id=":2035590531_8_0" index="0" disallow="tram rail_urban rail rail_electric rail_fast ship" speed="7.53" length="10.87" shape="279.05,427.77 281.63,429.24 284.14,429.67 286.56,429.06 288.90,427.41"/>
    </edge>
    <edge id=":2035590531_9" function="internal">
        <lane id=":2035590531_9_0" index="0" disallow="tram rail_urban rail rail_electric rail_fast ship" speed="13.89" length="15.66" shape="279.05,427.77 291.39,437.41"/>
    </edge>
    <edge id=":2035590531_10" function="internal">
        <lane id=":2035590531_10_0" index="0" disallow="tram rail_urban rail rail_electric rail_fast ship" speed="7.68" length="4.39" shape="279.05,427.77 282.04,430.79 282.08,430.92"/>
    </edge>
    <edge id=":2035590531_11" function="internal">
        <lane id=":2035590531_11_0" index="0" disallow="tram rail_urban rail rail_electric rail_fast ship" speed="3.65" length="1.44" shape="279.05,427.77 279.52,429.13"/>
    </edge>
    <edge id=":2035590531_18" function="internal">
        <lane id=":2035590531_18_0" index="0" disallow="tram rail_urban rail rail_electric rail_fast ship" speed="7.68" length="10.65" shape="282.08,430.92 283.10,433.88 282.25,437.04 279.47,440.26"/>
    </edge>
    <edge id=":2035590531_19" function="internal">
        <lane id=":2035590531_19_0" index="0" disallow="tram rail_urban rail rail_electric rail_fast ship" speed="3.65" length="3.23" shape="279.52,429.13 279.36,430.01 278.56,430.41 277.12,430.32"/>
    </edge>
    <edge id=":2035590531_12" function="internal">
        <lane id=":2035590531_12_0" index="0" disallow="tram rail_urban rail rail_electric rail_fast ship" speed="6.11" length="9.06" shape="277.37,437.84 279.04,435.90 279.56,434.00 278.92,432.14 277.12,430.32"/>
    </edge>
    <edge id=":2035590531_13" function="internal">
        <lane id=":2035590531_13_0" index="0" disallow="tram rail_urban rail rail_electric rail_fast ship" speed="13.89" length="15.55" shape="277.37,437.84 288.90,427.41"/>
    </edge>
    <edge id=":2035590531_14" function="internal">
        <lane id=":2035590531_14_0" index="0" disallow="tram rail_urban rail rail_electric rail_fast ship" speed="8.92" length="15.45" shape="277.37,437.84 280.87,435.53 284.37,434.69 287.88,435.31 291.39,437.41"/>
    </edge>
    <edge id=":2035590531_15" function="internal">
        <lane id=":2035590531_15_0" index="0" disallow="tram rail_urban rail rail_electric rail_fast ship" speed="3.65" length="4.67" shape="277.37,437.84 278.80,437.66 279.63,438.00 279.85,438.87 279.47,440.26"/>
    </edge>
    <edge id=":2035590542_0" function="internal">
        <lane id=":2035590542_0_0" index="0" disallow="tram rail_urban rail rail_electric rail_fast ship" speed="7.48" length="10.78" shape="375.68,509.10 373.21,507.60 370.76,507.14 368.34,507.72 365.93,509.34"/>
    </edge>
    <edge id=":2035590542_1" function="internal">
        <lane id=":2035590542_1_0" index="0" disallow="tram rail_urban rail rail_electric rail_fast ship" speed="13.89" length="15.53" shape="375.68,509.10 363.58,499.35"/>
    </edge>
    <edge id=":2035590542_2" function="internal">
        <lane id=":2035590542_2_0" index="0" disallow="tram rail_urban rail rail_electric rail_fast ship" speed="7.74" length="14.83" shape="375.68,509.10 372.86,506.04 371.88,502.93 372.72,499.79 375.40,496.61"/>
    </edge>
    <edge id=":2035590542_3" function="internal">
        <lane id=":2035590542_3_0" index="0" disallow="tram rail_urban rail rail_electric rail_fast ship" speed="3.65" length="4.67" shape="375.68,509.10 375.25,507.72 375.45,506.85 376.26,506.48 377.70,506.62"/>
    </edge>
    <edge id=":2035590542_4" function="internal">
        <lane id=":2035590542_4_0" index="0" disallow="tram rail_urban rail rail_electric rail_fast ship" speed="6.19" length="9.05" shape="377.53,498.99 375.90,500.94 375.38,502.86 375.98,504.75 377.70,506.62"/>
    </edge>
    <edge id=":2035590542_5" function="internal">
        <lane id=":2035590542_5_0" index="0" disallow="tram rail_urban rail rail_electric rail_fast ship" speed="13.89" length="15.55" shape="377.53,498.99 365.93,509.34"/>
    </edge>
    <edge id=":2035590542_6" function="internal">
        <lane id=":2035590542_6_0" index="0" disallow="tram rail_urban rail rail_electric rail_fast ship" speed="8.87" length="4.31" shape="377.53,498.99 374.11,501.29 373.93,501.33"/>
    </edge>
    <edge id=":2035590542_7" function="internal">
        <lane id=":2035590542_7_0" index="0" disallow="tram rail_urban rail rail_electric rail_fast ship" speed="3.65" length="1.44" shape="377.53,498.99 376.10,499.20"/>
    </edge>
    <edge id=":2035590542_16" function="internal">
        <lane id=":2035590542_16_0" index="0" disallow="tram rail_urban rail rail_electric rail_fast ship" speed="8.87" length="11.07" shape="373.93,501.33 370.65,502.11 367.14,501.47 363.58,499.35"/>
    </edge>
    <edge id=":2035590542_17" function="internal">
        <lane id=":2035590542_17_0" index="0" disallow="tram rail_urban rail rail_electric rail_fast ship" speed="3.65" length="3.23" shape="376.10,499.20 375.27,498.86 375.04,498.00 375.40,496.61"/>
    </edge>
    <edge id=":2035590542_8" function="internal">
        <lane id=":2035590542_8_0" index="0" disallow="tram rail_urban rail rail_electric rail_fast ship" speed="7.53" length="10.83" shape="365.58,496.85 368.08,498.34 370.56,498.80 372.99,498.22 375.40,496.61"/>
    </edge>
    <edge id=":2035590542_9" function="internal">
        <lane id=":2035590542_9_0" index="0" disallow="tram rail_urban rail rail_electric rail_fast ship" speed="13.89" length="15.57" shape="365.58,496.85 377.70,506.62"/>
    </edge>
    <edge id=":2035590542_10" function="internal">
        <lane id=":2035590542_10_0" index="0" disallow="tram rail_urban rail rail_electric rail_fast ship" speed="7.73" length="14.88" shape="365.58,496.85 368.44,499.90 369.46,502.99 368.62,506.14 365.93,509.34"/>
    </edge>
    <edge id=":2035590542_11" function="internal">
        <lane id=":2035590542_11_0" index="0" disallow="tram rail_urban rail rail_electric rail_fast ship" speed="3.65" length="4.67" shape="365.58,496.85 366.02,498.22 365.83,499.10 365.02,499.48 363.58,499.35"/>
    </edge>
    <edge id=":2035590542_12" function="internal">
        <lane id=":2035590542_12_0" index="0" disallow="tram rail_urban rail rail_electric rail_fast ship" speed="6.17" length="9.05" shape="363.80,506.95 365.43,505.01 365.94,503.09 365.33,501.21 363.58,499.35"/>
    </edge>
    <edge id=":2035590542_13" function="internal">
        <lane id=":2035590542_13_0" index="0" disallow="tram rail_urban rail rail_electric rail_fast ship" speed="13.89" length="15.55" shape="363.80,506.95 375.40,496.61"/>
    </edge>
    <edge id=":2035590542_14" function="internal">
        <lane id=":2035590542_14_0" index="0" disallow="tram rail_urban rail rail_electric rail_fast ship" speed="8.82" length="4.33" shape="363.80,506.95 367.23,504.65 367.41,504.60"/>
    </edge>
    <edge id=":2035590542_15" function="internal">
        <lane id=":2035590542_15_0" index="0" disallow="tram rail_urban rail rail_electric rail_fast ship" speed="3.65" length="1.44" shape="363.80,506.95 365.22,506.75"/>
    </edge>
    <edge id=":2035590542_18" function="internal">
        <lane id=":2035590542_18_0" index="0" disallow="tram rail_urban rail rail_electric rail_fast ship" speed="8.82" length="11.04" shape="367.41,504.60 370.69,503.82 374.18,504.48 377.70,506.62"/>
    </edge>
    <edge id=":2035590542_19" function="internal">
        <lane id=":2035590542_19_0" index="0" disallow="tram rail_urban rail rail_electric rail_fast ship" speed="3.65" length="3.23" shape="365.22,506.75 366.06,507.08 366.29,507.95 365.93,509.34"/>
    </edge>
    <edge id=":2035590549_0" function="internal">
        <lane id=":2035590549_0_0" index="0" disallow="tram rail_urban rail rail_electric rail_fast ship" speed="3.65" length="4.67" shape="114.24,731.35 112.81,731.53 111.98,731.19 111.76,730.32 112.14,728.93"/>
    </edge>
    <edge id=":2035590565_0" function="internal">
        <lane id=":2035590565_0_0" index="0" disallow="tram rail_urban rail rail_electric rail_fast ship" speed="3.65" length="4.67" shape="590.03,677.60 590.46,678.97 590.27,679.84 589.46,680.22 588.02,680.09"/>
    </edge>
    <edge id=":2035640737_0" function="internal">
        <lane id=":2035640737_0_0" index="0" disallow="tram rail_urban rail rail_electric rail_fast ship" speed="6.14" length="9.07" shape="171.31,339.47 172.92,341.44 174.71,342.28 176.67,341.98 178.80,340.55"/>
    </edge>
    <edge id=":2035640737_1" function="internal">
        <lane id=":2035640737_1_0" index="0" disallow="tram rail_urban rail rail_electric rail_fast ship" speed="3.65" length="4.67" shape="171.31,339.47 171.26,340.92 170.79,341.68 169.90,341.76 168.59,341.16"/>
    </edge>
    <edge id=":2035640737_2" function="internal">
        <lane id=":2035640737_2_0" index="0" disallow="tram rail_urban rail rail_electric rail_fast ship" speed="7.39" length="10.04" shape="168.13,350.34 169.59,348.42 170.16,346.25 169.82,343.83 168.59,341.16"/>
    </edge>
    <edge id=":2035640737_3" function="internal">
        <lane id=":2035640737_3_0" index="0" disallow="tram rail_urban rail rail_electric rail_fast ship" speed="27.78" length="14.45" shape="168.13,350.34 178.80,340.55"/>
        <lane id=":2035640737_3_1" index="1" disallow="tram rail_urban rail rail_electric rail_fast ship" speed="27.78" length="14.45" shape="170.32,352.67 180.94,342.93"/>
    </edge>
    <edge id=":2036011037_0" function="internal">