<?xml version="1.0" encoding="UTF-8"?>

<!-- generated on 2023-11-12 20:15:32 by Eclipse SUMO duarouter Version 1.18.0
<configuration xmlns:xsi="http://www.w3.org/2001/XMLSchema-instance" xsi:noNamespaceSchemaLocation="http://sumo.dlr.de/xsd/duarouterConfiguration.xsd">

    <input>
        <net-file value="C:\Users\pedro\Downloads\royal\map.net.xml"/>
        <route-files value="C:\Users\pedro\Downloads\royal\map.trips.xml"/>
    </input>

    <output>
        <output-file value="C:\Users\pedro\Downloads\royal\map.rou.xml"/>
    </output>

</configuration>
-->

<routes xmlns:xsi="http://www.w3.org/2001/XMLSchema-instance" xsi:noNamespaceSchemaLocation="http://sumo.dlr.de/xsd/routes_file.xsd">
    <vehicle id="0" depart="0.00">
        <route edges="-193030313 193030321#0"/>
    </vehicle>
    <vehicle id="1" depart="1.00">
        <route edges="-193030313 983077648#0"/>
    </vehicle>
    <vehicle id="2" depart="2.00">
        <route edges="-193030313 193030313"/>
    </vehicle>
    <vehicle id="3" depart="3.00">
        <route edges="-193030314 193030322#0"/>
    </vehicle>
    <vehicle id="4" depart="4.00">
        <route edges="-193030314 193030312#2"/>
    </vehicle>
    <vehicle id="5" depart="5.00">
        <route edges="-193030314 193030314"/>
    </vehicle>
    <vehicle id="6" depart="6.00">
        <route edges="-193030321#0 983077648#0"/>
    </vehicle>
    <vehicle id="7" depart="7.00">
        <route edges="-193030321#0 193030313"/>
    </vehicle>
    <vehicle id="8" depart="8.00">
        <route edges="-193030321#0 193030321#0"/>
    </vehicle>
    <vehicle id="9" depart="9.00">
        <route edges="-193030321#1 -193030321#0"/>
    </vehicle>
    <vehicle id="11" depart="11.00">
        <route edges="-193030321#2 193030324#2"/>
    </vehicle>
    <vehicle id="12" depart="12.00">
        <route edges="-193030321#2 -193030321#1"/>
    </vehicle>
    <vehicle id="13" depart="13.00">
        <route edges="-193030321#2 -193030324#1"/>
    </vehicle>
    <vehicle id="14" depart="14.00">
        <route edges="-193030321#2 193030321#2"/>
    </vehicle>
    <vehicle id="15" depart="15.00">
        <route edges="-193030322#0 193030312#2"/>
    </vehicle>
    <vehicle id="16" depart="16.00">
        <route edges="-193030322#0 193030314"/>
    </vehicle>
    <vehicle id="17" depart="17.00">
        <route edges="-193030322#0 193030322#0"/>
    </vehicle>
    <vehicle id="18" depart="18.00">
        <route edges="-193030322#1 193030324#1"/>
    </vehicle>
    <vehicle id="19" depart="19.00">
        <route edges="-193030322#1 -193030322#0"/>
    </vehicle>
    <vehicle id="20" depart="20.00">
        <route edges="-193030322#1 -193030324#0"/>
    </vehicle>
    <vehicle id="21" depart="21.00">
        <route edges="-193030322#1 193030322#1"/>
    </vehicle>
    <vehicle id="22" depart="22.00">
        <route edges="-193030324#0 193030324#0"/>
    </vehicle>
    <vehicle id="23" depart="23.00">
        <route edges="-193030324#1 -193030322#0"/>
    </vehicle>
    <vehicle id="24" depart="24.00">
        <route edges="-193030324#1 -193030324#0"/>
    </vehicle>
    <vehicle id="25" depart="25.00">
        <route edges="-193030324#1 193030322#1"/>
    </vehicle>
    <vehicle id="26" depart="26.00">
        <route edges="-193030324#1 193030324#1"/>
    </vehicle>
    <vehicle id="27" depart="27.00">
        <route edges="-193030324#2 -193030321#1"/>
    </vehicle>
    <vehicle id="28" depart="28.00">
        <route edges="-193030324#2 -193030324#1"/>
    </vehicle>
    <vehicle id="29" depart="29.00">
        <route edges="-193030324#2 193030321#2"/>
    </vehicle>
    <vehicle id="30" depart="30.00">
        <route edges="-193030324#2 193030324#2"/>
    </vehicle>
    <vehicle id="31" depart="31.00">
        <route edges="-193065647 372500446#0"/>
    </vehicle>
    <vehicle id="32" depart="32.00">
        <route edges="-193065647 -962569139"/>
    </vehicle>
    <vehicle id="33" depart="33.00">
        <route edges="-193065647 193065647"/>
    </vehicle>
    <vehicle id="34" depart="34.00">
        <route edges="-193065649#0 193030311#3"/>
    </vehicle>
    <vehicle id="35" depart="35.00">
        <route edges="-193065649#0 -962569140"/>
    </vehicle>
    <vehicle id="36" depart="36.00">
        <route edges="-193065649#0 193065649#0"/>
    </vehicle>
    <vehicle id="38" depart="38.00">
        <route edges="-193065649#1 -193065649#0"/>
    </vehicle>
    <vehicle id="39" depart="39.00">
        <route edges="-193065650 462207966"/>
    </vehicle>
    <vehicle id="40" depart="40.00">
        <route edges="-193065650 -193065649#1"/>
    </vehicle>
    <vehicle id="41" depart="41.00">
        <route edges="-193065650 193065650"/>
    </vehicle>
    <vehicle id="44" depart="44.00">
        <route edges="-193065663 -371536269#1"/>
    </vehicle>
    <vehicle id="45" depart="45.00">
        <route edges="-193065663 372500447#0"/>
    </vehicle>
    <vehicle id="46" depart="46.00">
        <route edges="-193065663 193065663"/>
    </vehicle>
    <vehicle id="71" depart="71.00">
        <route edges="-371536269#0 777361473"/>
    </vehicle>
    <vehicle id="72" depart="72.00">
        <route edges="-371536269#0 259401645"/>
    </vehicle>
    <vehicle id="73" depart="73.00">
        <route edges="-371536269#0 371536269#0"/>
    </vehicle>
    <vehicle id="75" depart="75.00">
        <route edges="-371536269#1 -371536269#0"/>
    </vehicle>
    <vehicle id="76" depart="76.00">
        <route edges="-372500447#0 193065663"/>
    </vehicle>
    <vehicle id="77" depart="77.00">
        <route edges="-372500447#0 -371536269#1"/>
    </vehicle>
    <vehicle id="78" depart="78.00">
        <route edges="-372500447#0 372500447#0"/>
    </vehicle>
    <vehicle id="79" depart="79.00">
        <route edges="-372500447#1 -372500447#0"/>
    </vehicle>
    <vehicle id="82" depart="82.00">
        <route edges="-372500447#2 -372500447#1"/>
    </vehicle>
    <vehicle id="83" depart="83.00">
        <route edges="-372500448 -193065647"/>
    </vehicle>
    <vehicle id="91" depart="91.00">
        <route edges="-462207965 -462207966"/>
    </vehicle>
    <vehicle id="92" depart="92.00">
        <route edges="-462207966 -193065649#1"/>
    </vehicle>
    <vehicle id="93" depart="93.00">
        <route edges="-462207966 193065650"/>
    </vehicle>
    <vehicle id="94" depart="94.00">
        <route edges="-462207966 462207966"/>
    </vehicle>
    <vehicle id="95" depart="95.00">
        <route edges="-470006995#0 305435187#3"/>
    </vehicle>
    <vehicle id="96" depart="96.00">
        <route edges="-470006995#0 470006995#0"/>
    </vehicle>
    <vehicle id="97" depart="97.00">
        <route edges="-470006995#1 -470006995#0"/>
    </vehicle>
    <vehicle id="108" depart="108.00">
        <route edges="-962569139 193030312#1"/>
    </vehicle>
    <vehicle id="109" depart="109.00">
        <route edges="-962569139 962569139"/>
    </vehicle>
    <vehicle id="110" depart="110.00">
        <route edges="-962569140 193030312#4"/>
    </vehicle>
    <vehicle id="111" depart="111.00">
        <route edges="-962569140 962569140"/>
    </vehicle>
    <vehicle id="119" depart="119.00">
        <route edges="1021963057 371536269#0"/>
    </vehicle>
    <vehicle id="120" depart="120.00">
        <route edges="1021963057 777361473"/>
    </vehicle>
    <vehicle id="121" depart="121.00">
        <route edges="1021963057 777361473"/>
    </vehicle>
    <vehicle id="122" depart="122.00">
        <route edges="1021963057 259401645"/>
    </vehicle>
    <vehicle id="123" depart="123.00">
        <route edges="193030310 497029975"/>
    </vehicle>
    <vehicle id="124" depart="124.00">
        <route edges="193030311#0 193030311#1"/>
    </vehicle>
    <vehicle id="125" depart="125.00">
        <route edges="193030311#1 193030311#2"/>
    </vehicle>
    <vehicle id="126" depart="126.00">
        <route edges="193030311#1 -193030313"/>
    </vehicle>
    <vehicle id="127" depart="127.00">
        <route edges="193030311#2 193065649#0"/>
    </vehicle>
    <vehicle id="128" depart="128.00">
        <route edges="193030311#2 193030311#3"/>
    </vehicle>
    <vehicle id="129" depart="129.00">
        <route edges="193030311#2 -962569140"/>
    </vehicle>
    <vehicle id="130" depart="130.00">
        <route edges="193030311#3 193030311#4"/>
    </vehicle>
    <vehicle id="131" depart="131.00">
        <route edges="193030311#3 -193030314"/>
    </vehicle>
    <vehicle id="132" depart="132.00">
        <route edges="193030311#4 372500445"/>
    </vehicle>
    <vehicle id="133" depart="133.00">
        <route edges="193030312#0 193030312#1"/>
    </vehicle>
    <vehicle id="134" depart="134.00">
        <route edges="193030312#0 962569139"/>
    </vehicle>
    <vehicle id="135" depart="135.00">
        <route edges="193030312#1 193030322#0"/>
    </vehicle>
    <vehicle id="136" depart="136.00">
        <route edges="193030312#1 193030312#2"/>
    </vehicle>
    <vehicle id="137" depart="137.00">
        <route edges="193030312#1 193030314"/>
    </vehicle>
    <vehicle id="139" depart="139.00">
        <route edges="193030312#2 193030312#3"/>
    </vehicle>
    <vehicle id="140" depart="140.00">
        <route edges="193030312#3 193030312#4"/>
    </vehicle>
    <vehicle id="141" depart="141.00">
        <route edges="193030312#3 962569140"/>
    </vehicle>
    <vehicle id="142" depart="142.00">
        <route edges="193030312#4 193030321#0"/>
    </vehicle>
    <vehicle id="143" depart="143.00">
        <route edges="193030312#4 983077648#0"/>
    </vehicle>
    <vehicle id="144" depart="144.00">
        <route edges="193030312#4 193030313"/>
    </vehicle>
    <vehicle id="145" depart="145.00">
        <route edges="193030313 193030311#2"/>
    </vehicle>
    <vehicle id="146" depart="146.00">
        <route edges="193030313 -193030313"/>
    </vehicle>
    <vehicle id="147" depart="147.00">
        <route edges="193030314 193030311#4"/>
    </vehicle>
    <vehicle id="148" depart="148.00">
        <route edges="193030314 -193030314"/>
    </vehicle>
    <vehicle id="150" depart="150.00">
        <route edges="193030321#0 193030321#1"/>
    </vehicle>
    <vehicle id="151" depart="151.00">
        <route edges="193030321#1 -193030324#1"/>
    </vehicle>
    <vehicle id="152" depart="152.00">
        <route edges="193030321#1 193030321#2"/>
    </vehicle>
    <vehicle id="153" depart="153.00">
        <route edges="193030321#1 193030324#2"/>
    </vehicle>
    <vehicle id="154" depart="154.00">
        <route edges="193030321#1 -193030321#1"/>
    </vehicle>
    <vehicle id="155" depart="155.00">
        <route edges="193030321#2 -193030321#2"/>
    </vehicle>
    <vehicle id="156" depart="156.00">
        <route edges="193030322#0 -193030324#0"/>
    </vehicle>
    <vehicle id="157" depart="157.00">
        <route edges="193030322#0 193030322#1"/>
    </vehicle>
    <vehicle id="158" depart="158.00">
        <route edges="193030322#0 193030324#1"/>
    </vehicle>
    <vehicle id="159" depart="159.00">
        <route edges="193030322#0 -193030322#0"/>
    </vehicle>
    <vehicle id="160" depart="160.00">
        <route edges="193030322#1 -193030322#1"/>
    </vehicle>
    <vehicle id="161" depart="161.00">
        <route edges="193030324#0 193030322#1"/>
    </vehicle>
    <vehicle id="162" depart="162.00">
        <route edges="193030324#0 193030324#1"/>
    </vehicle>
    <vehicle id="163" depart="163.00">
        <route edges="193030324#0 -193030322#0"/>
    </vehicle>
    <vehicle id="164" depart="164.00">
        <route edges="193030324#0 -193030324#0"/>
    </vehicle>
    <vehicle id="165" depart="165.00">
        <route edges="193030324#1 193030321#2"/>
    </vehicle>
    <vehicle id="166" depart="166.00">
        <route edges="193030324#1 193030324#2"/>
    </vehicle>
    <vehicle id="167" depart="167.00">
        <route edges="193030324#1 -193030321#1"/>
    </vehicle>
    <vehicle id="168" depart="168.00">
        <route edges="193030324#1 -193030324#1"/>
    </vehicle>
    <vehicle id="169" depart="169.00">
        <route edges="193030324#2 49793803#2"/>
    </vehicle>
    <vehicle id="170" depart="170.00">
        <route edges="193030324#2 -193030324#2"/>
    </vehicle>
    <vehicle id="171" depart="171.00">
        <route edges="193065647 372500448"/>
    </vehicle>
    <vehicle id="172" depart="172.00">
        <route edges="193065649#0 193065649#1"/>
    </vehicle>
    <vehicle id="174" depart="174.00">
        <route edges="193065649#1 193065650"/>
    </vehicle>
    <vehicle id="175" depart="175.00">
        <route edges="193065649#1 462207966"/>
    </vehicle>
    <vehicle id="176" depart="176.00">
        <route edges="193065649#1 -193065649#1"/>
    </vehicle>
    <vehicle id="177" depart="177.00">
        <route edges="193065650 371536217#0"/>
    </vehicle>
    <vehicle id="178" depart="178.00">
        <route edges="193065650 -193065650"/>
    </vehicle>
    <vehicle id="181" depart="181.00">
        <route edges="193065661 371536217#4"/>
    </vehicle>
    <vehicle id="182" depart="182.00">
        <route edges="193065663 50301285#1"/>
    </vehicle>
    <vehicle id="183" depart="183.00">
        <route edges="193065663 -193065663"/>
    </vehicle>
    <vehicle id="197" depart="197.00">
        <route edges="259401645 193065661"/>
    </vehicle>
</routes>
